Circuit: *** SPICE deck for cell NAND3{lay} from library gates

Instance "mpmos@5": Length shorter than recommended for a level 1 MOSFET.
Instance "mpmos@5": Width narrower than recommended for a level 1 MOSFET.
Instance "mpmos@4": Length shorter than recommended for a level 1 MOSFET.
Instance "mpmos@4": Width narrower than recommended for a level 1 MOSFET.
Instance "mpmos@3": Length shorter than recommended for a level 1 MOSFET.
Instance "mpmos@3": Width narrower than recommended for a level 1 MOSFET.
Instance "mnmos@6": Length shorter than recommended for a level 1 MOSFET.
Instance "mnmos@6": Width narrower than recommended for a level 1 MOSFET.
Instance "mnmos@5": Length shorter than recommended for a level 1 MOSFET.
Instance "mnmos@5": Width narrower than recommended for a level 1 MOSFET.
Instance "mnmos@4": Length shorter than recommended for a level 1 MOSFET.
Instance "mnmos@4": Width narrower than recommended for a level 1 MOSFET.
Direct Newton iteration for .op point succeeded.

Date: Tue Dec 08 16:13:30 2020
Total elapsed time: 0.150 seconds.

tnom = 27
temp = 27
method = modified trap
totiter = 2531
traniter = 2526
tranpoints = 1154
accept = 1128
rejected = 26
matrix size = 11
fillins = 0
solver = Normal
Matrix Compiler1: 468 bytes object code size  0.3/0.2/[0.1]
Matrix Compiler2: 937 bytes object code size  0.2/0.3/[0.2]


