Circuit: *** SPICE deck for cell NOR3{lay} from library gates

Instance "mpmos@9": Length shorter than recommended for a level 1 MOSFET.
Instance "mpmos@9": Width narrower than recommended for a level 1 MOSFET.
Instance "mpmos@8": Length shorter than recommended for a level 1 MOSFET.
Instance "mpmos@8": Width narrower than recommended for a level 1 MOSFET.
Instance "mpmos@3": Length shorter than recommended for a level 1 MOSFET.
Instance "mpmos@3": Width narrower than recommended for a level 1 MOSFET.
Instance "mnmos@5": Length shorter than recommended for a level 1 MOSFET.
Instance "mnmos@5": Width narrower than recommended for a level 1 MOSFET.
Instance "mnmos@4": Length shorter than recommended for a level 1 MOSFET.
Instance "mnmos@4": Width narrower than recommended for a level 1 MOSFET.
Instance "mnmos@3": Length shorter than recommended for a level 1 MOSFET.
Instance "mnmos@3": Width narrower than recommended for a level 1 MOSFET.
Direct Newton iteration for .op point succeeded.

Date: Tue Dec 08 16:15:14 2020
Total elapsed time: 0.159 seconds.

tnom = 27
temp = 27
method = modified trap
totiter = 2385
traniter = 2374
tranpoints = 1127
accept = 1111
rejected = 16
matrix size = 11
fillins = 0
solver = Normal
Matrix Compiler1: 522 bytes object code size  0.3/0.2/[0.1]
Matrix Compiler2: 999 bytes object code size  0.3/0.3/[0.2]


